
0
-------------------------------------------------------------------------
0
|    ___ _   _ ___                                                      |
0
|   / __| | | |_  )   Release 7.0.0  "Blackbird"                        |
1
|   \__ \ |_| |/ /                                                      |
1
|   |___/\___//___|   Suite (Computational Fluid Dynamics Code)         |
1
|                                                                       |
1
-------------------------------------------------------------------------
1
| SU2 Project Website: https://su2code.github.io                        |
1
|                                                                       |
1
| The SU2 Project is maintained by the SU2 Foundation                   |
1
| (http://su2foundation.org)                                            |
1
-------------------------------------------------------------------------
1
| Copyright 2012-2019, SU2 Contributors                                 |
1
|                                                                       |
1
| SU2 is free software; you can redistribute it and/or                  |
1
| modify it under the terms of the GNU Lesser General Public            |
1
| License as published by the Free Software Foundation; either          |
1
| version 2.1 of the License, or (at your option) any later version.    |
1
|                                                                       |
1
| SU2 is distributed in the hope that it will be useful,                |
1
| but WITHOUT ANY WARRANTY; without even the implied warranty of        |
1
| MERCHANTABILITY or FITNESS FOR A PARTICULAR PURPOSE. See the GNU      |
1
| Lesser General Public License for more details.                       |
1
|                                                                       |
1
| You should have received a copy of the GNU Lesser General Public      |
1
| License along with SU2. If not, see <http://www.gnu.org/licenses/>.   |
1
-------------------------------------------------------------------------
1

1
Parsing config file for zone 0
1

1
----------------- Physical Case Definition ( Zone 0 ) -------------------
1
Compressible RANS equations.
1
Turbulence model: Spalart Allmaras
1
Hybrid RANS/LES: No Hybrid RANS/LES
1
Mach number: 0.75.
1
Angle of attack (AoA): 2 deg, and angle of sideslip (AoS): 0 deg.
1
Reynolds number: 1.172e+07. Reference length 0.64607.
1
No restart solution, use the values at infinity (freestream).
1
Dimensional simulation.
1
The reference area will be computed using y(2D) or z(3D) projection.
1
The semi-span will be computed using the max y(3D) value.
1
The reference length is 0.64607 m.
1
Reference origin for moment evaluation is (0.25, 0, 0).
1
Surface(s) where the force coefficients are evaluated: Plane.
1

1
Surface(s) plotted in the output file: Plane.
1
Input mesh file name: dlrf4_1.su2
1

1
--------------- Space Numerical Integration ( Zone 0 ) ------------------
1
Roe (with entropy fix = 0.001) solver for the flow inviscid terms.
1
Standard Roe without low-dissipation function.
1
Second order integration in space, with slope limiter.
1
Venkatakrishnan slope-limiting method, with constant: 1. 
1
The reference element size is: 1. 
1
Scalar upwind solver for the turbulence model.
1
First order integration in space.
1
Average of gradients with correction (viscous flow terms).
1
Average of gradients with correction (viscous turbulence terms).
1
Gradient for upwind reconstruction: Green-Gauss.
1
Gradient for viscous and source terms: Green-Gauss.
1

1
--------------- Time Numerical Integration  ( Zone 0 ) ------------------
1
Local time stepping (steady state simulation).
1
Euler implicit method for the flow equations.
1
FGMRES is used for solving the linear system.
1
Using a ILU(0) preconditioning.
1
Convergence criteria of the linear solver: 0.0001.
1
Max number of linear iterations: 5.
1
No CFL adaptation.
1
Courant-Friedrichs-Lewy number:        4
1
Euler implicit time integration for the turbulence model.
1

1
------------------ Convergence Criteria  ( Zone 0 ) ---------------------
1
Maximum number of solver subiterations: 999999.
1
Begin convergence monitoring at iteration 10.
1
Residual minimum value: 1e-10.
1
Cauchy series min. value: 1e-06.
1
Number of Cauchy elements: 100.
1

1
-------------------- Output Information ( Zone 0 ) ----------------------
1
Writing solution files every 250 iterations.
1
Writing the convergence history file every 1 inner iterations.
1
Writing the screen convergence history every 1 inner iterations.
1
The tabular file format is CSV (.csv).
1
Convergence history file name: history.
1
Forces breakdown file name: forces_breakdown.dat.
1
Surface file name: surface_flow.
1
Volume file name: flow.
1
Restart file name: restart_flow.dat.
1

1
------------- Config File Boundary Information ( Zone 0 ) ---------------
1
+-----------------------------------------------------------------------+
1
|                        Marker Type|                        Marker Name|
1
+-----------------------------------------------------------------------+
1
|                          Far-field|                           Farfield|
1
+-----------------------------------------------------------------------+
1
|                     Symmetry plane|                           Symmetry|
1
+-----------------------------------------------------------------------+
1
|                     Heat flux wall|                              Plane|
1
+-----------------------------------------------------------------------+
1

1
-------------------- Output Preprocessing ( Zone 0 ) --------------------
1
Euler/Navier-Stokes/RANS output structure.
1
Screen output fields: INNER_ITER, RMS_DENSITY, RMS_NU_TILDE, LIFT, DRAG
1
History output group(s): ITER, RMS_RES
1
Convergence field(s): RMS_DENSITY
1
Volume output fields: COORDINATES, SOLUTION, PRIMITIVE
1

1
------------------- Geometry Preprocessing ( Zone 0 ) -------------------
1
Three dimensional problem.
1
1220883 grid points.
1
3158428 volume elements.
1
3 surface markers.
1
11426 boundary elements in index 0 (Marker = Farfield).
1
27980 boundary elements in index 1 (Marker = Plane).
1
22256 boundary elements in index 2 (Marker = Symmetry).
1
2130179 tetrahedra.
1
697239 hexahedra.
1
184996 prisms.
1
146014 pyramids.
1
Setting point connectivity.
1
Renumbering points (Reverse Cuthill McKee Ordering).
1
Recomputing point connectivity.
1
Setting element connectivity.
1
Checking the numerical grid orientation.
1
There has been a re-orientation of the PRISM volume elements.
1
Identifying edges and vertices.
1
Computing centers of gravity.
1
Setting the control volume structure.
1
Volume of the computational grid: 56529.6.
1
Searching for the closest normal neighbors to the surfaces.
1
Storing a mapping from global to local point index.
1
Compute the surface curvature.
1
Max K: 54977.5. Mean K: 873.049. Standard deviation K: 2342.89.
1
Checking for periodicity.
1
Computing mesh quality statistics for the dual control volumes.
1
+--------------------------------------------------------------+
1
|           Mesh Quality Metric|        Minimum|        Maximum|
1
+--------------------------------------------------------------+
1
|    Orthogonality Angle (deg.)|        2.60165|        89.9992|
1
|     CV Face Area Aspect Ratio|        1.02622|         8268.9|
1
|           CV Sub-Volume Ratio|        1.00077|        1926.36|
1
+--------------------------------------------------------------+
1
Finding max control volume width.
1
Computing wall distances.
1
Reference area = 0.126577 m^2.
1
Semi-span length = 0.585643 m.
1
Wetted area = 0.337582 m^2.
1
Area projection in the x-plane = 0.0171622 m^2, y-plane = 0.00460469 m^2, z-plane = 0.126577 m^2.
1
Max. coordinate in the x-direction = 1.192 m, y-direction = 0.585643 m, z-direction = 0.0823215 m.
1
Min. coordinate in the x-direction = 8.61616e-06 m, y-direction = -1.64211e-09 m, z-direction = -0.0661005 m.
1
Checking if Euler & Symmetry markers are straight/plane:
1
Boundary marker Symmetry is a single plane.
1

1
-------------------- Solver Preprocessing ( Zone 0 ) --------------------
1
Viscous flow: Computing pressure using the ideal gas law
1
based on the free-stream temperature and a density computed
1
from the Reynolds number.
1
Force coefficients computed using free-stream values.
1

1
-- Models:
1
+------------------------------------------------------------------------------+
1
|          Viscosity Model|        Conductivity Model|              Fluid Model|
1
+------------------------------------------------------------------------------+
1
|               SUTHERLAND|          CONSTANT_PRANDTL|             STANDARD_AIR|
1
+------------------------------------------------------------------------------+
1
-- Fluid properties:
1
+------------------------------------------------------------------------------+
1
|                  Name|    Dim. value|    Ref. value|      Unit|Non-dim. value|
2
+------------------------------------------------------------------------------+
2
|        Ref. Viscosity|     1.716e-05|             1|   N.s/m^2|     1.716e-05|
3
|      Sutherland Temp.|        273.15|             1|         K|        273.15|
4
|     Sutherland Const.|         110.4|             1|         K|         110.4|
5
+------------------------------------------------------------------------------+
5
|        Prandtl (Lam.)|             -|             -|         -|          0.72|
6
|       Prandtl (Turb.)|             -|             -|         -|           0.9|
7
+------------------------------------------------------------------------------+
7
|          Gas Constant|       287.058|             1|  N.m/kg.K|       287.058|
8
|      Spec. Heat Ratio|             -|             -|         -|           1.4|
9
+------------------------------------------------------------------------------+
9
-- Initial and free-stream conditions:
9
+------------------------------------------------------------------------------+
9
|                  Name|    Dim. value|    Ref. value|      Unit|Non-dim. value|
10
+------------------------------------------------------------------------------+
10
|       Static Pressure|        105196|             1|        Pa|        105196|
11
|               Density|       1.27178|             1|    kg/m^3|       1.27178|
12
|           Temperature|        288.15|             1|         K|        288.15|
13
|          Total Energy|        239359|             1|   m^2/s^2|        239359|
14
|            Velocity-X|       255.067|             1|       m/s|       255.067|
15
|            Velocity-Y|             0|             1|       m/s|             0|
16
|            Velocity-Z|       8.90715|             1|       m/s|       8.90715|
17
|    Velocity Magnitude|       255.223|             1|       m/s|       255.223|
18
+------------------------------------------------------------------------------+
18
|             Viscosity|    1.7893e-05|             1|   N.s/m^2|    1.7893e-05|
19
|          Conductivity|             -|             1|   W/m^2.K|             -|
20
|     Turb. Kin. Energy|        244.27|             1|   m^2/s^2|        244.27|
21
|     Spec. Dissipation|    1.7362e+06|             1|       1/s|    1.7362e+06|
22
+------------------------------------------------------------------------------+
22
|           Mach Number|             -|             -|         -|          0.75|
23
|       Reynolds Number|             -|             -|         -|     1.172e+07|
24
+------------------------------------------------------------------------------+
24
Initialize Jacobian structure (Navier-Stokes). MG level: 0.
24
Initialize Jacobian structure (SA model).
24

24
------------------- Numerics Preprocessing ( Zone 0 ) -------------------
24

24
----------------- Integration Preprocessing ( Zone 0 ) ------------------
24

24
------------------- Iteration Preprocessing ( Zone 0 ) ------------------
24
Euler/Navier-Stokes/RANS fluid iteration.
24

24
------------------------------ Begin Solver -----------------------------
24

24
Simulation Run using the Single-zone Driver
24
preconditon Time:4.58439
24

24
# FGMRES residual history
24
# Residual tolerance target = 0.0001
24
# Initial residual norm     = 49046.7
24
     0     1
24
Smoother Time:0.671815
24
Smoother Time:1.34928
24
# FGMRES final (true) residual:
24
# Iteration = 2: |res|/|res0| = 6.5714e-05.
24

24
FGMRES Solver Time:3.00933
24
Total Time:7.59379
24
preconditon Time:0.627298
24

24
# FGMRES residual history
24
# Residual tolerance target = 0.0001
24
# Initial residual norm     = 2.79492e-06
24
     0     1
24
# FGMRES final (true) residual:
24
# Iteration = 2: |res|/|res0| = 4.38985e-06.
24

24
FGMRES Solver Time:0.351361
24
+----------------------------------------------------------------+
24
|  Inner_Iter|    rms[Rho]|     rms[nu]|          CL|          CD|
25
+----------------------------------------------------------------+
25
|           0|   -3.860684|   -8.596967|    0.159357|    0.160549|
26
preconditon Time:4.57316
26

26
# FGMRES residual history
26
# Residual tolerance target = 0.0001
26
# Initial residual norm     = 48070.4
26
     0     1
26
Smoother Time:0.671134
26
Smoother Time:1.34229
26
Smoother Time:2.01389
26
# FGMRES final (true) residual:
26
# Iteration = 3: |res|/|res0| = 6.68711e-06.
26

26
FGMRES Solver Time:3.90399
26
Total Time:8.47724
26
preconditon Time:0.628656
26

26
# FGMRES residual history
26
# Residual tolerance target = 0.0001
26
# Initial residual norm     = 2.01277e-06
26
     0     1
26
# FGMRES final (true) residual:
26
# Iteration = 2: |res|/|res0| = 7.30135e-06.
26

26
FGMRES Solver Time:0.315139
26
|           1|   -3.879885|   -8.739544|    0.201678|    0.196551|
27
preconditon Time:4.57004
27

27
# FGMRES residual history
27
# Residual tolerance target = 0.0001
27
# Initial residual norm     = 27050.6
27
     0     1
27
Smoother Time:0.671274
27
Smoother Time:1.34618
27
Smoother Time:2.01643
27
# FGMRES final (true) residual:
27
# Iteration = 3: |res|/|res0| = 1.52701e-05.
27

27
FGMRES Solver Time:3.91088
27
Total Time:8.48099
27
preconditon Time:0.628405
27

27
# FGMRES residual history
27
# Residual tolerance target = 0.0001
27
# Initial residual norm     = 1.78904e-06
27
     0     1
27
# FGMRES final (true) residual:
27
# Iteration = 2: |res|/|res0| = 9.84917e-06.
27

27
FGMRES Solver Time:0.315315
27
|           2|   -4.128154|   -8.790718|    0.197872|    0.210619|
28
preconditon Time:4.58481
28

28
# FGMRES residual history
28
# Residual tolerance target = 0.0001
28
# Initial residual norm     = 19600
28
     0     1
28
Smoother Time:0.67219
28
Smoother Time:1.3438
28
Smoother Time:2.01501
28
# FGMRES final (true) residual:
28
# Iteration = 3: |res|/|res0| = 2.22308e-05.
28

28
FGMRES Solver Time:3.90032
28
Total Time:8.48519
28
preconditon Time:0.628649
28

28
# FGMRES residual history
28
# Residual tolerance target = 0.0001
28
# Initial residual norm     = 1.77943e-06
28
     0     1
28
# FGMRES final (true) residual:
28
# Iteration = 2: |res|/|res0| = 1.18157e-05.
28

28
FGMRES Solver Time:0.314883
28
|           3|   -4.265322|   -8.793057|    0.185420|    0.217065|
29
preconditon Time:4.60939
29

29
# FGMRES residual history
29
# Residual tolerance target = 0.0001
29
# Initial residual norm     = 16787.1
29
     0     1
29
Smoother Time:0.675144
29
Smoother Time:1.35031
29
Smoother Time:2.02286
29
# FGMRES final (true) residual:
29
# Iteration = 3: |res|/|res0| = 3.95454e-05.
29

29
FGMRES Solver Time:3.90913
29
Total Time:8.51859
29
preconditon Time:0.630749
29

29
# FGMRES residual history
29
# Residual tolerance target = 0.0001
29
# Initial residual norm     = 1.75446e-06
29
     0     1
29
# FGMRES final (true) residual:
29
# Iteration = 2: |res|/|res0| = 1.43081e-05.
29

29
FGMRES Solver Time:0.314274
29
|           4|   -4.331049|   -8.799193|    0.175150|    0.220911|
30
preconditon Time:4.593
30

30
# FGMRES residual history
30
# Residual tolerance target = 0.0001
30
# Initial residual norm     = 15445.3
30
     0     1
30
Smoother Time:0.672662
30
Smoother Time:1.34539
30
Smoother Time:2.01769
30
# FGMRES final (true) residual:
30
# Iteration = 3: |res|/|res0| = 6.88844e-05.
30

30
FGMRES Solver Time:3.9176
30
Total Time:8.51066
30
preconditon Time:0.629845
30

30
# FGMRES residual history
30
# Residual tolerance target = 0.0001
30
# Initial residual norm     = 1.68857e-06
30
     0     1
30
# FGMRES final (true) residual:
30
# Iteration = 2: |res|/|res0| = 1.84769e-05.
30

30
FGMRES Solver Time:0.314763
30
|           5|   -4.366470|   -8.815818|    0.169686|    0.223558|
31
preconditon Time:4.61166
31

31
# FGMRES residual history
31
# Residual tolerance target = 0.0001
31
# Initial residual norm     = 14599
31
     0     1
31
Smoother Time:0.676567
31
Smoother Time:1.35883
31
Smoother Time:2.03177
31
Smoother Time:2.70498
31
# FGMRES final (true) residual:
31
# Iteration = 4: |res|/|res0| = 8.36124e-06.
31

31
FGMRES Solver Time:5.03697
31
Total Time:9.64871
31
preconditon Time:0.638712
31

31
# FGMRES residual history
31
# Residual tolerance target = 0.0001
31
# Initial residual norm     = 1.59125e-06
31
     0     1
31
# FGMRES final (true) residual:
31
# Iteration = 2: |res|/|res0| = 2.54732e-05.
31

31
FGMRES Solver Time:0.314219
31
|           6|   -4.390131|   -8.841600|    0.167389|    0.225436|
32
preconditon Time:4.58602
32

32
# FGMRES residual history
32
# Residual tolerance target = 0.0001
32
# Initial residual norm     = 14032.9
32
     0     1
32
Smoother Time:0.672988
32
Smoother Time:1.34515
32
Smoother Time:2.01731
32
Smoother Time:2.68866
32
# FGMRES final (true) residual:
32
# Iteration = 4: |res|/|res0| = 1.2861e-05.
32

32
FGMRES Solver Time:5.01611
32
Total Time:9.60221
32
preconditon Time:0.631954
32

32
# FGMRES residual history
32
# Residual tolerance target = 0.0001
32
# Initial residual norm     = 1.54335e-06
32
     0     1
32
# FGMRES final (true) residual:
32
# Iteration = 2: |res|/|res0| = 3.4564e-05.
32

32
FGMRES Solver Time:0.315502
32
|           7|   -4.406593|   -8.854873|    0.166894|    0.226853|
33
preconditon Time:4.58291
33

33
# FGMRES residual history
33
# Residual tolerance target = 0.0001
33
# Initial residual norm     = 13651.2
33
     0     1
33
Smoother Time:0.677607
33
Smoother Time:1.34907
33
Smoother Time:2.02102
33
Smoother Time:2.69282
33
# FGMRES final (true) residual:
33
# Iteration = 4: |res|/|res0| = 1.88241e-05.
33

33
FGMRES Solver Time:5.01635
33
Total Time:9.59933
33
preconditon Time:0.631206
33

33
# FGMRES residual history
33
# Residual tolerance target = 0.0001
33
# Initial residual norm     = 1.50888e-06
33
     0     1
33
# FGMRES final (true) residual:
33
# Iteration = 2: |res|/|res0| = 4.67764e-05.
33

33
FGMRES Solver Time:0.323073
33
|           8|   -4.418017|   -8.864682|    0.167304|    0.227963|
34
preconditon Time:4.57797
34

34
# FGMRES residual history
34
# Residual tolerance target = 0.0001
34
# Initial residual norm     = 13390.4
34
     0     1
34
Smoother Time:0.671634
34
Smoother Time:1.34326
34
Smoother Time:2.01382
34
Smoother Time:2.688
34
# FGMRES final (true) residual:
34
# Iteration = 4: |res|/|res0| = 2.64664e-05.
34

34
FGMRES Solver Time:5.02883
34
Total Time:9.60688
34
preconditon Time:0.629117
34

34
# FGMRES residual history
34
# Residual tolerance target = 0.0001
34
# Initial residual norm     = 1.4817e-06
34
     0     1
34
# FGMRES final (true) residual:
34
# Iteration = 2: |res|/|res0| = 6.51144e-05.
34

34
FGMRES Solver Time:0.314052
34
|           9|   -4.425917|   -8.872577|    0.168036|    0.228815|
35
preconditon Time:4.57174
35

35
# FGMRES residual history
35
# Residual tolerance target = 0.0001
35
# Initial residual norm     = 13227.6
35
     0     1
35
Smoother Time:0.673827
35
Smoother Time:1.34507
35
Smoother Time:2.01601
35
Smoother Time:2.69467
35
# FGMRES final (true) residual:
35
# Iteration = 4: |res|/|res0| = 3.58763e-05.
35

35
FGMRES Solver Time:5.01915
35
Total Time:9.59096
35
preconditon Time:0.630156
35

35
# FGMRES residual history
35
# Residual tolerance target = 0.0001
35
# Initial residual norm     = 1.46288e-06
35
     0     1
35
# FGMRES final (true) residual:
35
# Iteration = 2: |res|/|res0| = 9.2168e-05.
35

35
FGMRES Solver Time:0.315194
35
|          10|   -4.430782|   -8.878129|    0.168756|    0.229423|
36
preconditon Time:4.59393
36

36
# FGMRES residual history
36
# Residual tolerance target = 0.0001
36
# Initial residual norm     = 13146.7
36
     0     1
36
Smoother Time:0.674988
36
Smoother Time:1.34582
36
Smoother Time:2.0174
36
Smoother Time:2.68816
36
# FGMRES final (true) residual:
36
# Iteration = 4: |res|/|res0| = 4.68443e-05.
36

36
FGMRES Solver Time:4.99394
36
Total Time:9.58793
36
preconditon Time:0.630349
36

36
# FGMRES residual history
36
# Residual tolerance target = 0.0001
36
# Initial residual norm     = 1.45275e-06
36
     0     1
36
# FGMRES final (true) residual:
36
# Iteration = 3: |res|/|res0| = 2.87233e-06.
36

36
FGMRES Solver Time:0.438929
36
|          11|   -4.432995|   -8.881145|    0.169337|    0.229798|
37
preconditon Time:4.58457
37

37
# FGMRES residual history
37
# Residual tolerance target = 0.0001
37
# Initial residual norm     = 13137.8
37
     0     1
37
Smoother Time:0.671444
37
Smoother Time:1.34315
37
Smoother Time:2.01508
37
Smoother Time:2.68815
37
# FGMRES final (true) residual:
37
# Iteration = 4: |res|/|res0| = 5.87274e-05.
37

37
FGMRES Solver Time:4.99651
37
Total Time:9.58115
37
preconditon Time:0.630504
37

37
# FGMRES residual history
37
# Residual tolerance target = 0.0001
37
# Initial residual norm     = 1.45085e-06
37
     0     1
37
# FGMRES final (true) residual:
37
# Iteration = 3: |res|/|res0| = 3.94369e-06.
37

37
FGMRES Solver Time:0.439685
37
|          12|   -4.432805|   -8.881714|    0.169770|    0.229945|
38
preconditon Time:4.58665
38

38
# FGMRES residual history
38
# Residual tolerance target = 0.0001
38
# Initial residual norm     = 13194.4
38
     0     1
38
Smoother Time:0.671016
38
Smoother Time:1.34276
38
Smoother Time:2.01822
38
Smoother Time:2.69439
38
# FGMRES final (true) residual:
38
# Iteration = 4: |res|/|res0| = 7.03372e-05.
38

38
FGMRES Solver Time:5.00228
38
Total Time:9.58898
38
preconditon Time:0.629443
38

38
# FGMRES residual history
38
# Residual tolerance target = 0.0001
38
# Initial residual norm     = 1.45638e-06
38
     0     1
38
# FGMRES final (true) residual:
38
# Iteration = 3: |res|/|res0| = 5.16176e-06.
38

38
FGMRES Solver Time:0.439027
38
|          13|   -4.430396|   -8.880062|    0.170087|    0.229870|
39
preconditon Time:4.57665
39

39
# FGMRES residual history
39
# Residual tolerance target = 0.0001
39
# Initial residual norm     = 13314
39
     0     1
39
Smoother Time:0.674568
39
Smoother Time:1.34737
39
Smoother Time:2.01832
39
Smoother Time:2.6934
39
# FGMRES final (true) residual:
39
# Iteration = 4: |res|/|res0| = 8.01342e-05.
39

39
FGMRES Solver Time:5.00948
39
Total Time:9.58619
39
preconditon Time:0.629105
39

39
# FGMRES residual history
39
# Residual tolerance target = 0.0001
39
# Initial residual norm     = 1.46875e-06
39
     0     1
39
# FGMRES final (true) residual:
39
# Iteration = 3: |res|/|res0| = 6.50947e-06.
39

39
FGMRES Solver Time:0.439593
39
|          14|   -4.425856|   -8.876388|    0.170327|    0.229581|
40
preconditon Time:4.58166
40

40
# FGMRES residual history
40
# Residual tolerance target = 0.0001
40
# Initial residual norm     = 13494.4
40
     0     1
40
Smoother Time:0.672339
40
Smoother Time:1.34418
40
Smoother Time:2.01485
40
Smoother Time:2.68646
40
# FGMRES final (true) residual:
40
# Iteration = 4: |res|/|res0| = 8.70435e-05.
40

40
FGMRES Solver Time:4.99864
40
Total Time:9.58037
40
preconditon Time:0.630499
40

40
# FGMRES residual history
40
# Residual tolerance target = 0.0001
40
# Initial residual norm     = 1.48754e-06
40
     0     1
40
# FGMRES final (true) residual:
40
# Iteration = 3: |res|/|res0| = 7.97208e-06.
40

40
FGMRES Solver Time:0.439516
40
|          15|   -4.419298|   -8.870869|    0.170514|    0.229088|
41
preconditon Time:4.57962
41

41
# FGMRES residual history
41
# Residual tolerance target = 0.0001
41
# Initial residual norm     = 13734.5
41
     0     1
41
Smoother Time:0.671876
41
Smoother Time:1.34356
41
Smoother Time:2.01571
41
Smoother Time:2.68984
41
# FGMRES final (true) residual:
41
# Iteration = 4: |res|/|res0| = 9.11526e-05.
41

41
FGMRES Solver Time:4.99738
41
Total Time:9.57706
41
preconditon Time:0.630006
41

41
# FGMRES residual history
41
# Residual tolerance target = 0.0001
41
# Initial residual norm     = 1.51258e-06
41
     0     1
41
# FGMRES final (true) residual:
41
# Iteration = 3: |res|/|res0| = 9.4841e-06.
41

41
FGMRES Solver Time:0.439162
41
|          16|   -4.410830|   -8.863619|    0.170666|    0.228402|
42
preconditon Time:4.58988
42

42
# FGMRES residual history
42
# Residual tolerance target = 0.0001
42
# Initial residual norm     = 14032.7
42
     0     1
42
Smoother Time:0.672134
42
Smoother Time:1.34364
42
Smoother Time:2.01521
42
Smoother Time:2.69124
42
# FGMRES final (true) residual:
42
# Iteration = 4: |res|/|res0| = 9.31972e-05.
42

42
FGMRES Solver Time:4.99678
42
Total Time:9.58673
42
preconditon Time:0.629793
42

42
# FGMRES residual history
42
# Residual tolerance target = 0.0001
42
# Initial residual norm     = 1.54372e-06
42
     0     1
42
# FGMRES final (true) residual:
42
# Iteration = 3: |res|/|res0| = 1.09873e-05.
42

42
FGMRES Solver Time:0.438165
42
|          17|   -4.400598|   -8.854768|    0.170799|    0.227532|
43
preconditon Time:4.5906
43

43
# FGMRES residual history
43
# Residual tolerance target = 0.0001
43
# Initial residual norm     = 14386.6
43
     0     1
43
Smoother Time:0.671965
43
Smoother Time:1.34301
43
Smoother Time:2.01373
43
Smoother Time:2.68499
43
# FGMRES final (true) residual:
43
# Iteration = 4: |res|/|res0| = 9.37015e-05.
43

43
FGMRES Solver Time:5.01214
43
Total Time:9.60281
43
preconditon Time:0.630389
43

43
# FGMRES residual history
43
# Residual tolerance target = 0.0001
43
# Initial residual norm     = 1.58071e-06
43
     0     1
43
# FGMRES final (true) residual:
43
# Iteration = 3: |res|/|res0| = 1.24717e-05.
43

43
FGMRES Solver Time:0.438637
43
|          18|   -4.388784|   -8.844486|    0.170914|    0.226487|
44
preconditon Time:4.5882
44

44
# FGMRES residual history
44
# Residual tolerance target = 0.0001
44
# Initial residual norm     = 14792.4
44
     0     1
44
Smoother Time:0.671331
44
Smoother Time:1.34267
44
Smoother Time:2.01884
44
Smoother Time:2.69026
44
# FGMRES final (true) residual:
44
# Iteration = 4: |res|/|res0| = 9.28225e-05.
44

44
FGMRES Solver Time:5.01498
44
Total Time:9.60325
44
preconditon Time:0.628792
44

44
# FGMRES residual history
44
# Residual tolerance target = 0.0001
44
# Initial residual norm     = 1.62297e-06
44
     0     1
44
# FGMRES final (true) residual:
44
# Iteration = 3: |res|/|res0| = 1.39276e-05.
44

44
FGMRES Solver Time:0.44638
44
|          19|   -4.375624|   -8.833027|    0.171006|    0.225273|
45
preconditon Time:4.5902
45

45
# FGMRES residual history
45
# Residual tolerance target = 0.0001
45
# Initial residual norm     = 15247.3
45
     0     1
45
Smoother Time:0.684179
45
Smoother Time:1.35963
45
Smoother Time:2.03082
45
Smoother Time:2.70298
45
# FGMRES final (true) residual:
45
# Iteration = 4: |res|/|res0| = 9.1342e-05.
45

45
FGMRES Solver Time:5.03108
45
Total Time:9.62134
45
preconditon Time:0.629592
45

45
# FGMRES residual history
45
# Residual tolerance target = 0.0001
45
# Initial residual norm     = 1.66991e-06
45
     0     1
45
# FGMRES final (true) residual:
45
# Iteration = 3: |res|/|res0| = 1.53393e-05.
45

45
FGMRES Solver Time:0.446719
45
|          20|   -4.361323|   -8.820645|    0.171077|    0.223893|
46
preconditon Time:4.57656
46

46
# FGMRES residual history
46
# Residual tolerance target = 0.0001
46
# Initial residual norm     = 15746.5
46
     0     1
46
Smoother Time:0.671049
46
Smoother Time:1.34287
46
Smoother Time:2.01369
46
Smoother Time:2.6843
46
# FGMRES final (true) residual:
46
# Iteration = 4: |res|/|res0| = 8.9353e-05.
46

46
FGMRES Solver Time:5.01566
46
Total Time:9.59229
46
preconditon Time:0.628949
46

46
# FGMRES residual history
46
# Residual tolerance target = 0.0001
46
# Initial residual norm     = 1.72171e-06
46
     0     1
46
# FGMRES final (true) residual:
46
# Iteration = 3: |res|/|res0| = 1.6692e-05.
46

46
FGMRES Solver Time:0.438811
46
|          21|   -4.346131|   -8.807376|    0.171132|    0.222348|
47
preconditon Time:4.58209
47

47
# FGMRES residual history
47
# Residual tolerance target = 0.0001
47
# Initial residual norm     = 16285.2
47
     0     1
47
Smoother Time:0.671483
47
Smoother Time:1.34367
47
Smoother Time:2.01625
47
Smoother Time:2.69091
47
# FGMRES final (true) residual:
47
# Iteration = 4: |res|/|res0| = 8.68756e-05.
47

47
FGMRES Solver Time:5.02209
47
Total Time:9.60425
47
preconditon Time:0.630623
47

47
# FGMRES residual history
47
# Residual tolerance target = 0.0001
47
# Initial residual norm     = 1.77787e-06
47
     0     1
47
# FGMRES final (true) residual:
47
# Iteration = 3: |res|/|res0| = 1.79739e-05.
47

47
FGMRES Solver Time:0.440087
47
|          22|   -4.330291|   -8.793437|    0.171171|    0.220641|
48
preconditon Time:4.58222
48

48
# FGMRES residual history
48
# Residual tolerance target = 0.0001
48
# Initial residual norm     = 16858.7
48
     0     1
48
Smoother Time:0.672095
48
Smoother Time:1.34422
48
Smoother Time:2.01497
48
Smoother Time:2.6865
48
# FGMRES final (true) residual:
48
# Iteration = 4: |res|/|res0| = 8.41633e-05.
48

48
FGMRES Solver Time:5.01481
48
Total Time:9.5971
48
preconditon Time:0.628712
48

48
# FGMRES residual history
48
# Residual tolerance target = 0.0001
48
# Initial residual norm     = 1.83761e-06
48
     0     1
48
# FGMRES final (true) residual:
48
# Iteration = 3: |res|/|res0| = 1.91704e-05.
48

48
FGMRES Solver Time:0.438617
48
|          23|   -4.314010|   -8.779083|    0.171198|    0.218775|
49
preconditon Time:4.58756
49

49
# FGMRES residual history
49
# Residual tolerance target = 0.0001
49
# Initial residual norm     = 17461.2
49
     0     1
49
Smoother Time:0.671497
49
Smoother Time:1.34279
49
Smoother Time:2.01448
49
Smoother Time:2.6867
49
# FGMRES final (true) residual:
49
# Iteration = 4: |res|/|res0| = 8.15775e-05.
49

49
FGMRES Solver Time:5.01462
49
Total Time:9.60224
49
preconditon Time:0.63022
49

49
# FGMRES residual history
49
# Residual tolerance target = 0.0001
49
# Initial residual norm     = 1.90007e-06
49
     0     1
49
# FGMRES final (true) residual:
49
# Iteration = 3: |res|/|res0| = 2.02632e-05.
49

49
FGMRES Solver Time:0.438141
49
|          24|   -4.297500|   -8.764567|    0.171219|    0.216750|
50
preconditon Time:4.58399
50

50
# FGMRES residual history
50
# Residual tolerance target = 0.0001
50
# Initial residual norm     = 18087.4
50
     0     1
50
Smoother Time:0.672049
50
Smoother Time:1.34333
50
Smoother Time:2.01536
50
Smoother Time:2.68744
50
# FGMRES final (true) residual:
50
# Iteration = 4: |res|/|res0| = 7.93806e-05.
50

50
FGMRES Solver Time:5.01089
50
Total Time:9.59495
50
preconditon Time:0.630263
50

50
# FGMRES residual history
50
# Residual tolerance target = 0.0001
50
# Initial residual norm     = 1.96462e-06
50
     0     1
50
# FGMRES final (true) residual:
50
# Iteration = 3: |res|/|res0| = 2.12276e-05.
50

50
FGMRES Solver Time:0.438053
50
|          25|   -4.280959|   -8.750058|    0.171238|    0.214569|
51
preconditon Time:4.58472
51

51
# FGMRES residual history
51
# Residual tolerance target = 0.0001
51
# Initial residual norm     = 18734.4
51
     0     1
51
Smoother Time:0.672161
51
Smoother Time:1.34353
51
Smoother Time:2.01563
51
Smoother Time:2.68668
51
# FGMRES final (true) residual:
51
# Iteration = 4: |res|/|res0| = 7.76247e-05.
51

51
FGMRES Solver Time:5.02277
51
Total Time:9.60755
51
preconditon Time:0.632748
51

51
# FGMRES residual history
51
# Residual tolerance target = 0.0001
51
# Initial residual norm     = 2.03068e-06
51
     0     1
51
# FGMRES final (true) residual:
51
# Iteration = 3: |res|/|res0| = 2.20342e-05.
51

51
FGMRES Solver Time:0.439514
51
|          26|   -4.264478|   -8.735695|    0.171259|    0.212232|
52
preconditon Time:4.65123
52

52
# FGMRES residual history
52
# Residual tolerance target = 0.0001
52
# Initial residual norm     = 19395.6
52
     0     1
52
Smoother Time:0.680827
52
Smoother Time:1.36095
52
Smoother Time:2.0403
52
Smoother Time:2.71381
52
# FGMRES final (true) residual:
52
# Iteration = 4: |res|/|res0| = 7.62609e-05.
52

52
FGMRES Solver Time:5.06036
52
Total Time:9.71165
52
preconditon Time:0.629403
52

52
# FGMRES residual history
52
# Residual tolerance target = 0.0001
52
# Initial residual norm     = 2.09787e-06
52
     0     1
52
# FGMRES final (true) residual:
52
# Iteration = 3: |res|/|res0| = 2.26467e-05.
52

52
FGMRES Solver Time:0.442098
52
|          27|   -4.248242|   -8.721559|    0.171287|    0.209744|
53
preconditon Time:4.57975
53

53
# FGMRES residual history
53
# Residual tolerance target = 0.0001
53
# Initial residual norm     = 20068.6
53
     0     1
53
Smoother Time:0.671569
53
Smoother Time:1.34343
53
Smoother Time:2.01664
53
Smoother Time:2.69316
53
# FGMRES final (true) residual:
53
# Iteration = 4: |res|/|res0| = 7.50497e-05.
53

53
FGMRES Solver Time:5.02603
53
Total Time:9.60586
53
preconditon Time:0.629818
53

53
# FGMRES residual history
53
# Residual tolerance target = 0.0001
53
# Initial residual norm     = 2.16612e-06
53
     0     1
53
# FGMRES final (true) residual:
53
# Iteration = 3: |res|/|res0| = 2.30263e-05.
53

53
FGMRES Solver Time:0.442561
53
|          28|   -4.232307|   -8.707655|    0.171323|    0.207107|
54
preconditon Time:4.57932
54

54
# FGMRES residual history
54
# Residual tolerance target = 0.0001
54
# Initial residual norm     = 20746.3
54
     0     1
54
Smoother Time:0.672528
54
Smoother Time:1.34447
54
Smoother Time:2.01635
54
Smoother Time:2.68743
54
# FGMRES final (true) residual:
54
# Iteration = 4: |res|/|res0| = 7.37933e-05.
54

54
FGMRES Solver Time:5.0242
54
Total Time:9.60358
54
preconditon Time:0.629369
54

54
# FGMRES residual history
54
# Residual tolerance target = 0.0001
54
# Initial residual norm     = 2.23539e-06
54
     0     1
54
# FGMRES final (true) residual:
54
# Iteration = 3: |res|/|res0| = 2.31342e-05.
54

54
FGMRES Solver Time:0.443754
54
|          29|   -4.216799|   -8.693984|    0.171378|    0.204327|
55
preconditon Time:4.62157
55

55
# FGMRES residual history
55
# Residual tolerance target = 0.0001
55
# Initial residual norm     = 21433.1
55
     0     1
55
Smoother Time:0.671319
55
Smoother Time:1.34271
55
Smoother Time:2.01388
55
Smoother Time:2.68504
55
# FGMRES final (true) residual:
55
# Iteration = 4: |res|/|res0| = 7.2345e-05.
55

55
FGMRES Solver Time:5.0103
55
Total Time:9.63194
55
preconditon Time:0.629191
55

55
# FGMRES residual history
55
# Residual tolerance target = 0.0001
55
# Initial residual norm     = 2.30602e-06
55
     0     1
55
# FGMRES final (true) residual:
55
# Iteration = 3: |res|/|res0| = 2.29458e-05.
55

55
FGMRES Solver Time:0.439016
55
|          30|   -4.201646|   -8.680474|    0.171463|    0.201413|
56
preconditon Time:4.60404
56

56
# FGMRES residual history
56
# Residual tolerance target = 0.0001
56
# Initial residual norm     = 22121.7
56
     0     1
56
Smoother Time:0.671924
56
Smoother Time:1.3433
56
Smoother Time:2.01389
56
Smoother Time:2.68576
56
# FGMRES final (true) residual:
56
# Iteration = 4: |res|/|res0| = 7.05404e-05.
56

56
FGMRES Solver Time:5.02037
56
Total Time:9.62447
56
preconditon Time:0.628776
56

56
# FGMRES residual history
56
# Residual tolerance target = 0.0001
56
# Initial residual norm     = 2.37867e-06
56
     0     1
56
# FGMRES final (true) residual:
56
# Iteration = 3: |res|/|res0| = 2.24542e-05.
56

56
FGMRES Solver Time:0.43906
56
|          31|   -4.186933|   -8.667002|    0.171587|    0.198371|
57
preconditon Time:4.58458
57

57
# FGMRES residual history
57
# Residual tolerance target = 0.0001
57
# Initial residual norm     = 22824.5
57
     0     1
57
Smoother Time:0.678085
57
Smoother Time:1.34926
57
Smoother Time:2.02261
57
Smoother Time:2.69402
57
# FGMRES final (true) residual:
57
# Iteration = 4: |res|/|res0| = 6.82927e-05.
57

57
FGMRES Solver Time:5.02948
57
Total Time:9.61416
57
preconditon Time:0.628372
57

57
# FGMRES residual history
57
# Residual tolerance target = 0.0001
57
# Initial residual norm     = 2.4546e-06
57
     0     1
57
# FGMRES final (true) residual:
57
# Iteration = 3: |res|/|res0| = 2.16819e-05.
57

57
FGMRES Solver Time:0.446332
57
|          32|   -4.172415|   -8.653356|    0.171756|    0.195206|
58
preconditon Time:4.58642
58

58
# FGMRES residual history
58
# Residual tolerance target = 0.0001
58
# Initial residual norm     = 23534.9
58
     0     1
58
Smoother Time:0.671433
58
Smoother Time:1.34465
58
Smoother Time:2.0196
58
Smoother Time:2.69116
58
# FGMRES final (true) residual:
58
# Iteration = 4: |res|/|res0| = 6.58406e-05.
58

58
FGMRES Solver Time:5.01694
58
Total Time:9.60342
58
preconditon Time:0.630929
58

58
# FGMRES residual history
58
# Residual tolerance target = 0.0001
58
# Initial residual norm     = 2.53508e-06
58
     0     1
58
# FGMRES final (true) residual:
58
# Iteration = 3: |res|/|res0| = 2.06925e-05.
58

58
FGMRES Solver Time:0.440311
58
|          33|   -4.158203|   -8.639346|    0.171974|    0.191927|
59
preconditon Time:4.58903
59

59
# FGMRES residual history
59
# Residual tolerance target = 0.0001
59
# Initial residual norm     = 24278.1
59
     0     1
59
Smoother Time:0.671099
59
Smoother Time:1.342
59
Smoother Time:2.01309
59
Smoother Time:2.68446
59
# FGMRES final (true) residual:
59
# Iteration = 4: |res|/|res0| = 6.31437e-05.
59

59
FGMRES Solver Time:5.01981
59
Total Time:9.6089
59
preconditon Time:0.627957
59

59
# FGMRES residual history
59
# Residual tolerance target = 0.0001
59
# Initial residual norm     = 2.62159e-06
59
     0     1
59
# FGMRES final (true) residual:
59
# Iteration = 3: |res|/|res0| = 1.96081e-05.
59

59
FGMRES Solver Time:0.438563
59
|          34|   -4.143838|   -8.624773|    0.172248|    0.188541|
60
preconditon Time:4.5815
60

60
# FGMRES residual history
60
# Residual tolerance target = 0.0001
60
# Initial residual norm     = 25051.1
60
     0     1
60
Smoother Time:0.671354
60
Smoother Time:1.3429
60
Smoother Time:2.01464
60
Smoother Time:2.68618
60
# FGMRES final (true) residual:
60
# Iteration = 4: |res|/|res0| = 6.05284e-05.
60

60
FGMRES Solver Time:5.02676
60
Total Time:9.60834
60
preconditon Time:0.630019
60

60
# FGMRES residual history
60
# Residual tolerance target = 0.0001
60
# Initial residual norm     = 2.71554e-06
60
     0     1
60
# FGMRES final (true) residual:
60
# Iteration = 3: |res|/|res0| = 1.85796e-05.
60

60
FGMRES Solver Time:0.438699
60
|          35|   -4.129340|   -8.609481|    0.172580|    0.185057|
61
preconditon Time:4.58038
61

61
# FGMRES residual history
61
# Residual tolerance target = 0.0001
61
# Initial residual norm     = 25887
61
     0     1
61
Smoother Time:0.684401
61
Smoother Time:1.37098
61
Smoother Time:2.0414
61
Smoother Time:2.71343
61
# FGMRES final (true) residual:
61
# Iteration = 4: |res|/|res0| = 5.82045e-05.
61

61
FGMRES Solver Time:5.05262
61
Total Time:9.63307
61
preconditon Time:0.629136
61

61
# FGMRES residual history
61
# Residual tolerance target = 0.0001
61
# Initial residual norm     = 2.81776e-06
61
     0     1
61
# FGMRES final (true) residual:
61
# Iteration = 3: |res|/|res0| = 1.77014e-05.
61

61
FGMRES Solver Time:0.437749
61
|          36|   -4.114243|   -8.593432|    0.172978|    0.181483|
62
preconditon Time:4.57983
62

62
# FGMRES residual history
62
# Residual tolerance target = 0.0001
62
# Initial residual norm     = 26778.8
62
     0     1
62
Smoother Time:0.67098
62
Smoother Time:1.34334
62
Smoother Time:2.01466
62
Smoother Time:2.68615
62
# FGMRES final (true) residual:
62
# Iteration = 4: |res|/|res0| = 5.61855e-05.
62

62
FGMRES Solver Time:5.01181
62
Total Time:9.59171
62
preconditon Time:0.630008
62

62
# FGMRES residual history
62
# Residual tolerance target = 0.0001
62
# Initial residual norm     = 2.92842e-06
62
     0     1
62
# FGMRES final (true) residual:
62
# Iteration = 3: |res|/|res0| = 1.70312e-05.
62

62
FGMRES Solver Time:0.439288
62
|          37|   -4.098645|   -8.576703|    0.173443|    0.177832|
63
preconditon Time:4.57867
63

63
# FGMRES residual history
63
# Residual tolerance target = 0.0001
63
# Initial residual norm     = 27740.2
63
     0     1
63
Smoother Time:0.672871
63
Smoother Time:1.34404
63
Smoother Time:2.01465
63
Smoother Time:2.6863
63
# FGMRES final (true) residual:
63
# Iteration = 4: |res|/|res0| = 5.46275e-05.
63

63
FGMRES Solver Time:5.01919
63
Total Time:9.59793
63
preconditon Time:0.63936
63

63
# FGMRES residual history
63
# Residual tolerance target = 0.0001
63
# Initial residual norm     = 3.0472e-06
63
     0     1
63
# FGMRES final (true) residual:
63
# Iteration = 3: |res|/|res0| = 1.65394e-05.
63

63
FGMRES Solver Time:0.438974
63
|          38|   -4.082411|   -8.559435|    0.173982|    0.174112|
64
preconditon Time:4.57701
64

64
# FGMRES residual history
64
# Residual tolerance target = 0.0001
64
# Initial residual norm     = 28764.2
64
     0     1
64
Smoother Time:0.676584
64
Smoother Time:1.35363
64
Smoother Time:2.02468
64
Smoother Time:2.69684
64
# FGMRES final (true) residual:
64
# Iteration = 4: |res|/|res0| = 5.34004e-05.
64

64
FGMRES Solver Time:5.02405
64
Total Time:9.60114
64
preconditon Time:0.629027
64

64
# FGMRES residual history
64
# Residual tolerance target = 0.0001
64
# Initial residual norm     = 3.17363e-06
64
     0     1
64
# FGMRES final (true) residual:
64
# Iteration = 3: |res|/|res0| = 1.61452e-05.
64

64
FGMRES Solver Time:0.439173
64
|          39|   -4.065696|   -8.541781|    0.174591|    0.170337|
65
preconditon Time:4.57633
65

65
# FGMRES residual history
65
# Residual tolerance target = 0.0001
65
# Initial residual norm     = 29845.6
65
     0     1
65
Smoother Time:0.671359
65
Smoother Time:1.34252
65
Smoother Time:2.0177
65
Smoother Time:2.69371
65
# FGMRES final (true) residual:
65
# Iteration = 4: |res|/|res0| = 5.25302e-05.
65

65
FGMRES Solver Time:5.03075
65
Total Time:9.60717
65
preconditon Time:0.631352
65

65
# FGMRES residual history
65
# Residual tolerance target = 0.0001
65
# Initial residual norm     = 3.30755e-06
65
     0     1
65
# FGMRES final (true) residual:
65
# Iteration = 3: |res|/|res0| = 1.57841e-05.
65

65
FGMRES Solver Time:0.439576
65
|          40|   -4.048561|   -8.523831|    0.175273|    0.166515|
66
preconditon Time:4.69353
66

66
# FGMRES residual history
66
# Residual tolerance target = 0.0001
66
# Initial residual norm     = 31000.9
66
     0     1
66
Smoother Time:0.671897
66
Smoother Time:1.3456
66
Smoother Time:2.01744
66
Smoother Time:2.68886
66
# FGMRES final (true) residual:
66
# Iteration = 4: |res|/|res0| = 5.19023e-05.
66

66
FGMRES Solver Time:5.03347
66
Total Time:9.72707
66
preconditon Time:0.63031
66

66
# FGMRES residual history
66
# Residual tolerance target = 0.0001
66
# Initial residual norm     = 3.44909e-06
66
     0     1
66
# FGMRES final (true) residual:
66
# Iteration = 3: |res|/|res0| = 1.53973e-05.
66

66
FGMRES Solver Time:0.438042
66
|          41|   -4.030854|   -8.505633|    0.176030|    0.162659|
67
preconditon Time:4.58988
67

67
# FGMRES residual history
67
# Residual tolerance target = 0.0001
67
# Initial residual norm     = 32218.1
67
     0     1
67
Smoother Time:0.67115
67
Smoother Time:1.34395
67
Smoother Time:2.02122
67
Smoother Time:2.69353
67
# FGMRES final (true) residual:
67
# Iteration = 4: |res|/|res0| = 5.14226e-05.
67

67
FGMRES Solver Time:5.02229
67
Total Time:9.61224
67
preconditon Time:0.630342
67

67
# FGMRES residual history
67
# Residual tolerance target = 0.0001
67
# Initial residual norm     = 3.59824e-06
67
     0     1
67
# FGMRES final (true) residual:
67
# Iteration = 3: |res|/|res0| = 1.49594e-05.
67

67
FGMRES Solver Time:0.439883
67
|          42|   -4.012807|   -8.487247|    0.176866|    0.158779|
68
preconditon Time:4.59053
68

68
# FGMRES residual history
68
# Residual tolerance target = 0.0001
68
# Initial residual norm     = 33503.3
68
     0     1
68
Smoother Time:0.671732
68
Smoother Time:1.34252
68
Smoother Time:2.0137
68
Smoother Time:2.68466
68
# FGMRES final (true) residual:
68
# Iteration = 4: |res|/|res0| = 5.10811e-05.
68

68
FGMRES Solver Time:5.01084
68
Total Time:9.60144
68
preconditon Time:0.638306
68

68
# FGMRES residual history
68
# Residual tolerance target = 0.0001
68
# Initial residual norm     = 3.75497e-06
68
     0     1
68
# FGMRES final (true) residual:
68
# Iteration = 3: |res|/|res0| = 1.45139e-05.
68

68
FGMRES Solver Time:0.444742
68
|          43|   -3.994366|   -8.468730|    0.177784|    0.154883|
69
preconditon Time:4.58556
69

69
# FGMRES residual history
69
# Residual tolerance target = 0.0001
69
# Initial residual norm     = 34843.3
69
     0     1
69
Smoother Time:0.676433
69
Smoother Time:1.34735
69
Smoother Time:2.01973
69
Smoother Time:2.69271
69
# FGMRES final (true) residual:
69
# Iteration = 4: |res|/|res0| = 5.08078e-05.
69

69
FGMRES Solver Time:5.02179
69
Total Time:9.60742
69
preconditon Time:0.631851
69

69
# FGMRES residual history
69
# Residual tolerance target = 0.0001
69
# Initial residual norm     = 3.91962e-06
69
     0     1
69
# FGMRES final (true) residual:
69
# Iteration = 3: |res|/|res0| = 1.40863e-05.
69

69
FGMRES Solver Time:0.440731
69
|          44|   -3.975747|   -8.450094|    0.178787|    0.150984|
70
preconditon Time:4.57696
70

70
# FGMRES residual history
70
# Residual tolerance target = 0.0001
70
# Initial residual norm     = 36229.1
70
     0     1
70
Smoother Time:0.671173
70
Smoother Time:1.34346
70
Smoother Time:2.01554
70
Smoother Time:2.68892
70
# FGMRES final (true) residual:
70
# Iteration = 4: |res|/|res0| = 5.06133e-05.
70

70
FGMRES Solver Time:5.01687
70
Total Time:9.59389
70
preconditon Time:0.628712
70

70
# FGMRES residual history
70
# Residual tolerance target = 0.0001
70
# Initial residual norm     = 4.09275e-06
70
     0     1
70
# FGMRES final (true) residual:
70
# Iteration = 3: |res|/|res0| = 1.36917e-05.
70

70
FGMRES Solver Time:0.440801
70
|          45|   -3.957039|   -8.431321|    0.179880|    0.147092|
71
preconditon Time:4.57283
71

71
# FGMRES residual history
71
# Residual tolerance target = 0.0001
71
# Initial residual norm     = 37643
71
     0     1
71
Smoother Time:0.672027
71
Smoother Time:1.34395
71
Smoother Time:2.02136
71
Smoother Time:2.69313
71
# FGMRES final (true) residual:
71
# Iteration = 4: |res|/|res0| = 5.05295e-05.
71

71
FGMRES Solver Time:5.02033
71
Total Time:9.59323
71
preconditon Time:0.62944
71

71
# FGMRES residual history
71
# Residual tolerance target = 0.0001
71
# Initial residual norm     = 4.27516e-06
71
     0     1
71
# FGMRES final (true) residual:
71
# Iteration = 3: |res|/|res0| = 1.33593e-05.
71

71
FGMRES Solver Time:0.438238
71
|          46|   -3.938431|   -8.412384|    0.181059|    0.143214|
72
preconditon Time:4.58282
72

72
# FGMRES residual history
72
# Residual tolerance target = 0.0001
72
# Initial residual norm     = 39099.3
72
     0     1
72
Smoother Time:0.673263
72
Smoother Time:1.34485
72
Smoother Time:2.02102
72
Smoother Time:2.6987
72
# FGMRES final (true) residual:
72
# Iteration = 4: |res|/|res0| = 5.05716e-05.
72

72
FGMRES Solver Time:5.02645
72
Total Time:9.60935
72
preconditon Time:0.629035
72

72
# FGMRES residual history
72
# Residual tolerance target = 0.0001
72
# Initial residual norm     = 4.46734e-06
72
     0     1
72
# FGMRES final (true) residual:
72
# Iteration = 3: |res|/|res0| = 1.31045e-05.
72

72
FGMRES Solver Time:0.445831
72
|          47|   -3.919758|   -8.393288|    0.182322|    0.139360|
73
preconditon Time:4.5987
73

73
# FGMRES residual history
73
# Residual tolerance target = 0.0001
73
# Initial residual norm     = 40593
73
     0     1
73
Smoother Time:0.688269
73
Smoother Time:1.37596
73
Smoother Time:2.06336
73
Smoother Time:2.74437
73
# FGMRES final (true) residual:
73
# Iteration = 4: |res|/|res0| = 5.07567e-05.
73

73
FGMRES Solver Time:5.11058
73
Total Time:9.70936
73
preconditon Time:0.630595
73

73
# FGMRES residual history
73
# Residual tolerance target = 0.0001
73
# Initial residual norm     = 4.66954e-06
73
     0     1
73
# FGMRES final (true) residual:
73
# Iteration = 3: |res|/|res0| = 1.29241e-05.
73

73
FGMRES Solver Time:0.439974
73
|          48|   -3.901029|   -8.374063|    0.183662|    0.135539|
74
preconditon Time:4.59231
74

74
# FGMRES residual history
74
# Residual tolerance target = 0.0001
74
# Initial residual norm     = 42123
74
     0     1
74
Smoother Time:0.672215
74
Smoother Time:1.34539
74
Smoother Time:2.01884
74
Smoother Time:2.69008
74
# FGMRES final (true) residual:
74
# Iteration = 4: |res|/|res0| = 5.10458e-05.
74

74
FGMRES Solver Time:5.02692
74
Total Time:9.6193
74
preconditon Time:0.628823
74

74
# FGMRES residual history
74
# Residual tolerance target = 0.0001
74
# Initial residual norm     = 4.88161e-06
74
     0     1
74
# FGMRES final (true) residual:
74
# Iteration = 3: |res|/|res0| = 1.28066e-05.
74

74
FGMRES Solver Time:0.439738
74
|          49|   -3.882237|   -8.354774|    0.185076|    0.131758|
75
preconditon Time:4.63577
75

75
# FGMRES residual history
75
# Residual tolerance target = 0.0001
75
# Initial residual norm     = 43678
75
     0     1
75
Smoother Time:0.671315
75
Smoother Time:1.34235
75
Smoother Time:2.01413
75
Smoother Time:2.68582
75
# FGMRES final (true) residual:
75
# Iteration = 4: |res|/|res0| = 5.14335e-05.
75

75
FGMRES Solver Time:5.01125
75
Total Time:9.64709
75
preconditon Time:0.629123
75

75
# FGMRES residual history
75
# Residual tolerance target = 0.0001
75
# Initial residual norm     = 5.10363e-06
75
     0     1
75
# FGMRES final (true) residual:
75
# Iteration = 3: |res|/|res0| = 1.27391e-05.
75

75
FGMRES Solver Time:0.44046
75
|          50|   -3.863474|   -8.335458|    0.186561|    0.128026|
76
preconditon Time:4.58854
76

76
# FGMRES residual history
76
# Residual tolerance target = 0.0001
76
# Initial residual norm     = 45242.2
76
     0     1
76
Smoother Time:0.67603
76
Smoother Time:1.34756
76
Smoother Time:2.01839
76
Smoother Time:2.68957
76
# FGMRES final (true) residual:
76
# Iteration = 4: |res|/|res0| = 5.18901e-05.
76

76
FGMRES Solver Time:5.01742
76
Total Time:9.60603
76
preconditon Time:0.632379
76

76
# FGMRES residual history
76
# Residual tolerance target = 0.0001
76
# Initial residual norm     = 5.33577e-06
76
     0     1
76
# FGMRES final (true) residual:
76
# Iteration = 3: |res|/|res0| = 1.27117e-05.
76

76
FGMRES Solver Time:0.445603
76
|          51|   -3.844872|   -8.316140|    0.188114|    0.124350|
77
preconditon Time:4.57925
77

77
# FGMRES residual history
77
# Residual tolerance target = 0.0001
77
# Initial residual norm     = 46793
77
     0     1
77
Smoother Time:0.675695
77
Smoother Time:1.35304
77
Smoother Time:2.02586
77
Smoother Time:2.70424
77
# FGMRES final (true) residual:
77
# Iteration = 4: |res|/|res0| = 5.23863e-05.
77

77
FGMRES Solver Time:5.04833
77
Total Time:9.62766
77
preconditon Time:0.62894
77

77
# FGMRES residual history
77
# Residual tolerance target = 0.0001
77
# Initial residual norm     = 5.57869e-06
77
     0     1
77
# FGMRES final (true) residual:
77
# Iteration = 3: |res|/|res0| = 1.27206e-05.
77

77
FGMRES Solver Time:0.43973
77
|          52|   -3.826585|   -8.296805|    0.189730|    0.120738|
78
preconditon Time:4.58373
78

78
# FGMRES residual history
78
# Residual tolerance target = 0.0001
78
# Initial residual norm     = 48305.9
78
     0     1
78
Smoother Time:0.671621
78
Smoother Time:1.34435
78
Smoother Time:2.01581
78
Smoother Time:2.69304
78
# FGMRES final (true) residual:
78
# Iteration = 4: |res|/|res0| = 5.29192e-05.
78

78
FGMRES Solver Time:5.03282
78
Total Time:9.61662
78
preconditon Time:0.629181
78

78
# FGMRES residual history
78
# Residual tolerance target = 0.0001
78
# Initial residual norm     = 5.83392e-06
78
     0     1
78
# FGMRES final (true) residual:
78
# Iteration = 3: |res|/|res0| = 1.27643e-05.
78

78
FGMRES Solver Time:0.439883
78
|          53|   -3.808785|   -8.277376|    0.191402|    0.117196|
79
preconditon Time:4.59267
79

79
# FGMRES residual history
79
# Residual tolerance target = 0.0001
79
# Initial residual norm     = 49787
79
     0     1
79
Smoother Time:0.674401
79
Smoother Time:1.34785
79
Smoother Time:2.01957
79
Smoother Time:2.69122
79
# FGMRES final (true) residual:
79
# Iteration = 4: |res|/|res0| = 5.34738e-05.
79

79
FGMRES Solver Time:5.02148
79
Total Time:9.61422
79
preconditon Time:0.630373
79

79
# FGMRES residual history
79
# Residual tolerance target = 0.0001
79
# Initial residual norm     = 6.10303e-06
79
     0     1
79
# FGMRES final (true) residual:
79
# Iteration = 3: |res|/|res0| = 1.28375e-05.
79

79
FGMRES Solver Time:0.444541
79
|          54|   -3.791417|   -8.257792|    0.193122|    0.113732|
80
preconditon Time:4.58371
80

80
# FGMRES residual history
80
# Residual tolerance target = 0.0001
80
# Initial residual norm     = 51234.7
80
     0     1
80
Smoother Time:0.67304
80
Smoother Time:1.35145
80
Smoother Time:2.02188
80
Smoother Time:2.69378
80
# FGMRES final (true) residual:
80
# Iteration = 4: |res|/|res0| = 5.40352e-05.
80

80
FGMRES Solver Time:5.01895
80
Total Time:9.60272
80
preconditon Time:0.633515
80

80
# FGMRES residual history
80
# Residual tolerance target = 0.0001
80
# Initial residual norm     = 6.38722e-06
80
     0     1
80
# FGMRES final (true) residual:
80
# Iteration = 3: |res|/|res0| = 1.29317e-05.
80

80
FGMRES Solver Time:0.440285
80
